1

C 0.000 0.000 0.000
1

C 1.000 0.000 0.000
1

C 2.000 0.000 0.000
1

C 3.000 0.000 0.000
1

C 4.000 0.000 0.000
1

C 5.000 0.000 0.000
1

C 6.000 0.000 0.000
1

C 7.000 0.000 0.000
1

C 8.000 0.000 0.000
1

C 9.000 0.000 0.000
1

C 10.000 0.000 0.000
1

C 11.000 0.000 0.000
1

C 12.000 0.000 0.000
1

C 13.000 0.000 0.000
1

C 14.000 0.000 0.000
1

C 15.000 0.000 0.000
1

C 16.000 0.000 0.000
1

C 17.000 0.000 0.000
1

C 18.000 0.000 0.000
1

C 19.000 0.000 0.000
1

C 20.000 0.000 0.000
1

C 21.000 0.000 0.000
1

C 22.000 0.000 0.000
1

C 23.000 0.000 0.000
1

C 24.000 0.000 0.000
1

C 25.000 0.000 0.000
1

C 26.000 0.000 0.000
1

C 27.000 0.000 0.000
1

C 28.000 0.000 0.000
1

C 29.000 0.000 0.000
1

C 30.000 0.000 0.000
1

C 31.000 0.000 0.000
1

C 32.000 0.000 0.000
1

C 33.000 0.000 0.000
1

C 34.000 0.000 0.000
1

C 35.000 0.000 0.000
1

C 36.000 0.000 0.000
1

C 37.000 0.000 0.000
1

C 38.000 0.000 0.000
1

C 39.000 0.000 0.000
1

C 40.000 0.000 0.000
1

C 41.000 0.000 0.000
1

C 42.000 0.000 0.000
1

C 43.000 0.000 0.000
1

C 44.000 0.000 0.000
1

C 45.000 0.000 0.000
1

C 46.000 0.000 0.000
1

C 47.000 0.000 0.000
1

C 48.000 0.000 0.000
1

C 49.000 0.000 0.000
1

C 50.000 0.000 0.000
1

C 51.000 0.000 0.000
1

C 52.000 0.000 0.000
1

C 53.000 0.000 0.000
1

C 54.000 0.000 0.000
1

C 55.000 0.000 0.000
1

C 56.000 0.000 0.000
1

C 57.000 0.000 0.000
1

C 58.000 0.000 0.000
1

C 59.000 0.000 0.000
1

C 60.000 0.000 0.000
1

C 61.000 0.000 0.000
1

C 62.000 0.000 0.000
1

C 63.000 0.000 0.000
1

C 64.000 0.000 0.000
1

C 65.000 0.000 0.000
1

C 66.000 0.000 0.000
1

C 67.000 0.000 0.000
1

C 68.000 0.000 0.000
1

C 69.000 0.000 0.000
1

C 70.000 0.000 0.000
1

C 71.000 0.000 0.000
1

C 72.000 0.000 0.000
1

C 73.000 0.000 0.000
1

C 74.000 0.000 0.000
1

C 75.000 0.000 0.000
1

C 76.000 0.000 0.000
1

C 77.000 0.000 0.000
1

C 78.000 0.000 0.000
1

C 79.000 0.000 0.000
1

C 80.000 0.000 0.000
1

C 81.000 0.000 0.000
1

C 82.000 0.000 0.000
1

C 83.000 0.000 0.000
1

C 84.000 0.000 0.000
1

C 85.000 0.000 0.000
1

C 86.000 0.000 0.000
1

C 87.000 0.000 0.000
1

C 88.000 0.000 0.000
1

C 89.000 0.000 0.000
1

C 90.000 0.000 0.000
1

C 91.000 0.000 0.000
1

C 92.000 0.000 0.000
1

C 93.000 0.000 0.000
1

C 94.000 0.000 0.000
1

C 95.000 0.000 0.000
1

C 96.000 0.000 0.000
1

C 97.000 0.000 0.000
1

C 98.000 0.000 0.000
1

C 99.000 0.000 0.000
